Version 4
SHEET 1 1232 680
WIRE 176 0 176 -16
WIRE 176 0 -112 0
WIRE 336 0 176 0
WIRE 752 0 336 0
WIRE 864 0 752 0
WIRE 176 32 176 0
WIRE 864 32 864 0
WIRE 128 48 96 48
WIRE 336 48 336 0
WIRE -112 112 -112 80
WIRE 96 112 96 48
WIRE 96 112 -112 112
WIRE 176 160 176 128
WIRE 336 160 336 112
WIRE 336 160 176 160
WIRE 624 160 336 160
WIRE 752 160 752 64
WIRE 752 160 704 160
WIRE 864 160 864 112
WIRE 864 160 752 160
WIRE -112 192 -112 112
WIRE 176 192 176 160
WIRE 336 208 336 160
WIRE 864 208 864 160
WIRE 752 256 752 160
WIRE -192 272 -672 272
WIRE -160 272 -192 272
WIRE 128 272 96 272
WIRE 176 304 176 288
WIRE 336 304 336 272
WIRE 336 304 176 304
WIRE -112 336 -112 288
WIRE 176 336 176 304
WIRE 752 336 752 320
WIRE 864 336 864 288
WIRE 864 336 752 336
WIRE -192 400 -192 272
WIRE 96 400 96 272
WIRE 96 400 -192 400
FLAG 176 336 0
FLAG 752 336 0
FLAG 176 -96 0
FLAG -112 336 0
FLAG -672 352 0
SYMBOL ind 720 144 R90
WINDOW 0 5 56 VBottom 2
WINDOW 3 32 56 VTop 2
SYMATTR InstName L1
SYMATTR Value 1µ
SYMBOL voltage 176 0 R180
WINDOW 0 24 96 Left 2
WINDOW 3 24 16 Left 2
WINDOW 123 0 0 Left 0
WINDOW 39 0 0 Left 0
SYMATTR InstName V1
SYMATTR Value 100
SYMBOL cap 736 256 R0
SYMATTR InstName C2
SYMATTR Value 300n
SYMBOL res 848 192 R0
SYMATTR InstName R1
SYMATTR Value 10k
SYMBOL cap 736 0 R0
SYMATTR InstName C1
SYMATTR Value 300n
SYMBOL pmos 128 192 R0
SYMATTR InstName M1
SYMATTR Value IRFP9240
SYMBOL nmos 128 128 M180
SYMATTR InstName M4
SYMATTR Value IXFX90N30
SYMBOL voltage -672 256 R0
WINDOW 123 0 0 Left 0
WINDOW 39 0 0 Left 0
SYMATTR InstName V3
SYMATTR Value PULSE(0 10 0 1p 1p 1.5u 2u)
SYMBOL pmos -160 192 R0
SYMATTR InstName M2
SYMATTR Value IRFP9240
SYMBOL res -128 -16 R0
SYMATTR InstName R3
SYMATTR Value 1k
SYMBOL res 848 16 R0
SYMATTR InstName R2
SYMATTR Value 10k
TEXT -834 -56 Left 2 !.tran 0 3.02m 3m
