Version 4
SHEET 1 2868 736
WIRE 816 -320 736 -320
WIRE 1360 -320 896 -320
WIRE -176 -112 -208 -112
WIRE 320 -112 192 -112
WIRE 384 -112 320 -112
WIRE 1136 -112 1040 -112
WIRE 1360 -112 1360 -320
WIRE 1424 -112 1360 -112
WIRE 1472 -112 1424 -112
WIRE -208 -64 -208 -112
WIRE 1200 -48 1200 -64
WIRE 192 16 192 -112
WIRE 224 16 192 16
WIRE -208 32 -208 16
WIRE 320 32 320 -112
WIRE 320 32 288 32
WIRE 608 32 480 32
WIRE 736 32 736 -320
WIRE 736 32 688 32
WIRE 800 32 736 32
WIRE 112 48 112 0
WIRE 224 48 112 48
WIRE 976 48 976 -160
WIRE 976 48 864 48
WIRE 1072 48 976 48
WIRE 1200 48 1200 32
WIRE 1200 48 1152 48
WIRE 1360 48 1360 -112
WIRE 1360 48 1200 48
WIRE 800 64 416 64
WIRE 1200 64 1200 48
WIRE 112 96 112 48
WIRE 416 96 416 64
WIRE 416 160 416 96
WIRE 1200 160 1200 144
WIRE 1136 208 1040 208
WIRE 976 256 976 48
WIRE 416 272 416 240
WIRE 560 272 560 240
WIRE 560 272 416 272
WIRE 560 304 560 272
FLAG 1472 -32 0
FLAG -208 32 0
FLAG -176 -112 VDDH
FLAG 256 0 VDDH
FLAG 256 64 0
FLAG 384 -112 VDDC
FLAG 112 -80 VDDH
FLAG 112 176 0
FLAG 480 32 VDDC
FLAG 560 304 VDDC
FLAG 1200 256 0
FLAG 1040 304 0
FLAG 832 80 0
FLAG 832 16 VDDH
FLAG 1040 -208 VDDH
FLAG 1200 -160 VDDH
FLAG 1424 -112 out
FLAG 416 96 vin
SYMBOL OpAmps\\opamp2 832 -16 R0
SYMATTR InstName U2
SYMATTR Value OPA462
SYMBOL voltage 560 144 R0
WINDOW 123 24 124 Left 2
WINDOW 39 0 0 Left 0
SYMATTR InstName V3
SYMATTR Value SINE(0 2.85 26k)
SYMBOL res 704 16 R90
WINDOW 0 0 56 VBottom 2
WINDOW 3 32 56 VTop 2
SYMATTR InstName R3
SYMATTR Value 4k
SYMBOL res 912 -336 R90
WINDOW 0 0 56 VBottom 2
WINDOW 3 32 56 VTop 2
SYMATTR InstName R4
SYMATTR Value 100k
SYMBOL npn 1136 -160 R0
SYMATTR InstName Q1
SYMATTR Value FZT696B
SYMBOL pnp 1136 256 M180
SYMATTR InstName Q2
SYMATTR Value FZT796A
SYMBOL res 1184 48 R0
SYMATTR InstName R1
SYMATTR Value 0.2
SYMBOL res 1168 32 R90
WINDOW 0 0 56 VBottom 2
WINDOW 3 32 56 VTop 2
SYMATTR InstName R2
SYMATTR Value 100
SYMBOL res 1184 -64 R0
SYMATTR InstName R5
SYMATTR Value 0.2
SYMBOL res 1456 -128 R0
SYMATTR InstName R6
SYMATTR Value 1000
SYMBOL npn 976 -208 R0
SYMATTR InstName Q3
SYMATTR Value FZT696B
SYMBOL pnp 976 304 M180
SYMATTR InstName Q4
SYMATTR Value FZT796A
SYMBOL voltage -208 -80 R0
WINDOW 123 0 0 Left 0
WINDOW 39 0 0 Left 0
SYMATTR InstName V5
SYMATTR Value 180
SYMBOL OpAmps\\opamp2 256 -32 R0
SYMATTR InstName U1
SYMATTR Value OPA462
SYMBOL res 96 -96 R0
SYMATTR InstName R7
SYMATTR Value 10k
SYMBOL res 96 80 R0
SYMATTR InstName R8
SYMATTR Value 7.143k
SYMBOL voltage 416 144 R0
WINDOW 123 0 0 Left 0
WINDOW 39 0 0 Left 0
SYMATTR InstName V1
SYMATTR Value PULSE(-2.85 2.85 0 10m 1p 1p 10m)
TEXT 1640 16 Left 2 !;tran 0 100u 0
TEXT 1640 48 Left 2 !.include OPA462.LIB
TEXT 1640 -304 Left 2 !.MODEL FZT696B NPN IS =.98476E-12 NF =.999 BF =705 IKF=0.8 VAF=235\n    +ISE=8.1E-14 NE =1.36 NR =1.002 BR =20 IKR=.8 VAR=26 ISC=.66E-12\n    +NC =1.15 RB =.07 RE =.125 RC =.098 CJC=25.4E-12 MJC=.47 VJC=.445\n    +CJE=270E-12 TF =1.301E-9 TR =690E-9 XTB=1.4\n    +QUASIMOD=1 RCO=24 GAMMA=75E-8
TEXT 1640 -152 Left 2 !.MODEL FZT796A PNP IS=7E-13 NF=1.005 BF=450 IKF=2 VAF=450 ISE=1E-14\n    +NE=1.4 NR=1 BR=6.5 VAR=48 ISC=4.1E-13 IKR=0.4 NC=1.07 RB=0.05\n    +RE=0.06 RC=0.14 CJC=52E-12 MJC=0.515 VJC=0.65 CJE=280E-12 TF=0.83E-9\n    +TR=130E-8 XTB=1.4 TRB1=.005 TRE1=.005 QUASIMOD=1 RCO=13 GAMMA=2E-7
TEXT -240 416 Left 2 !.tran 10m
