Version 4
SHEET 1 1412 680
WIRE 560 48 560 0
WIRE 880 48 880 0
WIRE 880 160 880 128
WIRE 944 160 880 160
WIRE 1088 160 944 160
WIRE 1248 160 1152 160
WIRE 1344 160 1248 160
WIRE 880 192 880 160
WIRE 1344 192 1344 160
WIRE 128 240 80 240
WIRE 176 240 128 240
WIRE 320 240 256 240
WIRE 368 240 320 240
WIRE 560 240 560 128
WIRE 560 240 432 240
WIRE 768 240 560 240
WIRE 816 240 768 240
WIRE 80 288 80 240
WIRE 1344 304 1344 272
WIRE 880 320 880 288
WIRE 944 320 880 320
WIRE 1136 320 944 320
WIRE 560 352 560 240
WIRE 880 352 880 320
WIRE 1136 368 1136 320
WIRE 560 480 560 432
WIRE 880 480 880 432
WIRE 1136 480 1136 432
FLAG 80 128 0
FLAG 80 368 0
FLAG 80 48 Vcc
FLAG 128 240 s
FLAG 320 240 in
FLAG 560 480 0
FLAG 560 0 Vcc
FLAG 880 0 Vcc
FLAG 880 480 0
FLAG 1136 480 0
FLAG 1344 304 0
FLAG 944 160 c
FLAG 1248 160 out
FLAG 944 320 e
FLAG 768 240 b
SYMBOL voltage 80 32 R0
SYMATTR InstName V1
SYMATTR Value 12V
SYMBOL voltage 80 272 R0
WINDOW 123 24 124 Left 2
WINDOW 39 0 0 Left 0
SYMATTR InstName Vs
SYMATTR Value 0
SYMATTR Value2 AC 1
SYMBOL res 272 224 R90
WINDOW 0 0 56 VBottom 2
WINDOW 3 32 56 VTop 2
SYMATTR InstName Rs
SYMATTR Value 1k
SYMBOL cap 432 224 R90
WINDOW 0 0 32 VBottom 2
WINDOW 3 32 32 VTop 2
SYMATTR InstName C1
SYMATTR Value {mc(0.1uF,tol2)}
SYMBOL res 544 32 R0
SYMATTR InstName RB1
SYMATTR Value {mc(100k,tol1)}
SYMBOL res 544 336 R0
SYMATTR InstName RB2
SYMATTR Value {mc(20k,tol1)}
SYMBOL res 864 32 R0
SYMATTR InstName RC
SYMATTR Value {mc(4.7k,tol1)}
SYMBOL npn 816 192 R0
SYMATTR InstName Q1
SYMATTR Value 2N3904
SYMBOL res 864 336 R0
SYMATTR InstName RE
SYMATTR Value {mc(1.3k,tol1)}
SYMBOL cap 1120 368 R0
SYMATTR InstName C3
SYMATTR Value {mc(10uF,tol2)}
SYMBOL cap 1152 144 R90
WINDOW 0 0 32 VBottom 2
WINDOW 3 32 32 VTop 2
SYMATTR InstName C2
SYMATTR Value {mc(0.1uF,tol2)}
SYMBOL res 1328 176 R0
SYMATTR InstName RL
SYMATTR Value 10k
TEXT 88 568 Left 2 !.param tol1=0.05
TEXT 88 608 Left 2 !.param tol2=0.1
TEXT 96 656 Left 2 !.step param run 0 9 1
TEXT 536 552 Left 2 !.ac dec 100 10 10Meg
TEXT 536 600 Left 2 !.meas AC gain MAX mag(V(out)/V(s))
TEXT 536 632 Left 2 !.meas AC Low3dB WHEN mag(V(out)/V(s))=gain/sqrt(2) Rise=1
TEXT 536 664 Left 2 !.meas AC High3dB WHEN mag(V(out)/V(s))=gain/sqrt(2) Fall=1
