Version 4
SHEET 1 1024 680
WIRE 848 -96 32 -96
WIRE 384 -16 160 -16
WIRE 528 -16 464 -16
WIRE 848 -16 848 -96
WIRE 848 -16 592 -16
WIRE 624 64 512 64
WIRE 160 80 160 -16
WIRE 192 80 160 80
WIRE 288 80 256 80
WIRE 768 80 688 80
WIRE 848 80 848 -16
WIRE 512 96 512 64
WIRE 624 96 544 96
WIRE -128 160 -128 128
WIRE -128 176 -128 160
WIRE 32 192 32 -96
WIRE 160 192 160 80
WIRE 160 192 112 192
WIRE 192 192 160 192
WIRE 288 208 288 80
WIRE 288 208 256 208
WIRE 352 208 288 208
WIRE 544 208 544 96
WIRE 544 208 432 208
WIRE 640 208 544 208
WIRE 848 208 848 80
WIRE 848 208 720 208
WIRE 192 224 160 224
WIRE 848 240 848 208
WIRE 160 272 160 224
WIRE 848 336 848 304
FLAG 160 272 0
FLAG -128 160 0
FLAG 224 176 vcc
FLAG 672 48 vcc
FLAG -128 48 vcc
FLAG -128 256 vee
FLAG 656 112 vee
FLAG 224 240 vee
FLAG 848 400 0
FLAG 512 96 0
FLAG 288 80 2
FLAG 848 -16 1
SYMBOL res 128 176 R90
WINDOW 0 0 56 VBottom 2
WINDOW 3 32 56 VTop 2
SYMATTR InstName Rint
SYMATTR Value 50k
SYMBOL OpAmps\\LT1457 224 208 R0
SYMATTR InstName U1
SYMBOL voltage -128 32 R0
SYMATTR InstName V1
SYMATTR Value 15
SYMBOL voltage -128 160 R0
SYMATTR InstName V2
SYMATTR Value 15
SYMBOL cap 256 64 R90
WINDOW 0 0 32 VBottom 2
WINDOW 3 32 32 VTop 2
SYMATTR InstName C1
SYMATTR Value 100n
SYMBOL res 448 192 R90
WINDOW 0 0 56 VBottom 2
WINDOW 3 32 56 VTop 2
SYMATTR InstName R1
SYMATTR Value 50k
SYMBOL res 736 192 R90
WINDOW 0 0 56 VBottom 2
WINDOW 3 32 56 VTop 2
SYMATTR InstName R2
SYMATTR Value 150k
SYMBOL zener 832 240 R0
SYMATTR InstName D1
SYMATTR Value CDZV11B
SYMBOL zener 864 400 R180
WINDOW 0 24 64 Left 2
WINDOW 3 24 0 Left 2
SYMATTR InstName D2
SYMATTR Value CDZV11B
SYMBOL OpAmps\\LT1008 656 16 R0
SYMATTR InstName U3
SYMBOL res 864 64 R90
WINDOW 0 0 56 VBottom 2
WINDOW 3 32 56 VTop 2
SYMATTR InstName R3
SYMATTR Value 1k
SYMBOL res 480 -32 R90
WINDOW 0 0 56 VBottom 2
WINDOW 3 32 56 VTop 2
SYMATTR InstName Rint_p
SYMATTR Value 25k
SYMBOL diode 592 -32 R90
WINDOW 0 0 32 VBottom 2
WINDOW 3 32 32 VTop 2
SYMATTR InstName D3
TEXT 224 376 Left 2 !.tran 0 30m 10m 10u
TEXT 232 416 Left 2 !.ic v(2) = 1
