Version 4
SHEET 1 880 680
WIRE 112 -80 32 -80
WIRE 368 -80 192 -80
WIRE 832 -80 368 -80
WIRE 32 32 32 -80
WIRE 128 32 32 32
WIRE 240 32 192 32
WIRE -192 80 -192 64
WIRE -192 80 -224 80
WIRE -192 96 -192 80
WIRE 528 144 496 144
WIRE 32 160 32 32
WIRE 128 160 32 160
WIRE 672 160 672 112
WIRE 672 160 592 160
WIRE 704 160 672 160
WIRE 832 160 832 -80
WIRE 832 160 784 160
WIRE 240 176 240 32
WIRE 240 176 192 176
WIRE 320 176 240 176
WIRE 464 176 400 176
WIRE 528 176 464 176
WIRE 128 192 80 192
WIRE 560 208 560 192
WIRE 160 224 160 208
WIRE 464 272 464 176
WIRE 624 272 464 272
WIRE 832 272 832 160
WIRE 832 272 704 272
FLAG -224 80 5v
FLAG 672 32 5v
FLAG 160 224 0
FLAG 560 208 0
FLAG -352 192 0
FLAG -352 112 10v
FLAG 560 128 10v
FLAG 160 144 10v
FLAG 80 192 5v
FLAG 496 144 5v
FLAG 368 -80 comp
FLAG 240 32 tri
FLAG -192 176 0
FLAG -192 -16 10v
SYMBOL OpAmps\\LT1457 160 176 R0
SYMATTR InstName U1
SYMBOL Comparators\\LT1017 560 160 R0
SYMATTR InstName U2
SYMBOL res 416 160 R90
WINDOW 0 0 56 VBottom 2
WINDOW 3 32 56 VTop 2
SYMATTR InstName R1
SYMATTR Value 50k
SYMBOL res 720 256 R90
WINDOW 0 0 56 VBottom 2
WINDOW 3 32 56 VTop 2
SYMATTR InstName R2
SYMATTR Value 100k
SYMBOL res 800 144 R90
WINDOW 0 0 56 VBottom 2
WINDOW 3 32 56 VTop 2
SYMATTR InstName R3
SYMATTR Value 1k
SYMBOL res 688 128 R180
WINDOW 0 36 76 Left 2
WINDOW 3 36 40 Left 2
SYMATTR InstName R4
SYMATTR Value 1k
SYMBOL res 208 -96 R90
WINDOW 0 0 56 VBottom 2
WINDOW 3 32 56 VTop 2
SYMATTR InstName R5
SYMATTR Value 53k
SYMBOL cap 192 16 R90
WINDOW 0 0 32 VBottom 2
WINDOW 3 32 32 VTop 2
SYMATTR InstName C1
SYMATTR Value 10n
SYMBOL voltage -352 96 R0
SYMATTR InstName V2
SYMBOL res -208 -32 R0
SYMATTR InstName R6
SYMATTR Value 100k
SYMBOL res -208 80 R0
SYMATTR InstName R7
SYMATTR Value 100k
TEXT -264 328 Left 2 !.tran 0 4m 0 10u
TEXT -96 392 Left 2 !.ic v(tri) = 1
