Version 4
SHEET 1 1000 680
WIRE 608 -32 480 -32
WIRE 752 -32 608 -32
WIRE 608 48 608 -32
WIRE 384 64 320 64
WIRE 576 64 384 64
WIRE 752 80 752 48
WIRE 752 80 640 80
WIRE 944 80 752 80
WIRE 480 96 480 48
WIRE 576 96 480 96
WIRE 480 144 480 96
WIRE 576 144 480 144
WIRE 480 160 480 144
WIRE 320 176 320 64
WIRE 576 192 576 144
WIRE 640 192 576 192
WIRE 752 192 752 80
WIRE 752 192 720 192
FLAG 16 144 0
FLAG 320 256 0
FLAG 16 64 v
FLAG 608 112 0
FLAG 608 -32 v
FLAG 480 240 0
FLAG 944 80 out
FLAG 384 64 in
SYMBOL voltage 16 48 R0
SYMATTR InstName V1
SYMATTR Value 9
SYMBOL voltage 320 160 R0
SYMATTR InstName V2
SYMATTR Value SINE(0 9 1k 0 0)
SYMBOL Comparators\\LT1017 608 80 R0
SYMATTR InstName U1
SYMBOL res 464 -48 R0
SYMATTR InstName R1
SYMATTR Value 10k
SYMBOL res 736 -48 R0
SYMATTR InstName R2
SYMATTR Value 1k
SYMBOL res 464 144 R0
SYMATTR InstName R3
SYMATTR Value 20k
SYMBOL res 736 176 R90
WINDOW 0 0 56 VBottom 2
WINDOW 3 32 56 VTop 2
SYMATTR InstName R4
SYMATTR Value 30k
TEXT 256 336 Left 2 !.tran 10
