Version 4
SHEET 1 1612 680
WIRE 96 0 -16 0
WIRE 304 0 176 0
WIRE 432 0 304 0
WIRE 608 0 496 0
WIRE 720 0 608 0
WIRE 848 0 720 0
WIRE -16 96 -16 0
WIRE 304 96 304 0
WIRE 608 96 608 0
WIRE 848 96 848 0
WIRE -496 112 -496 16
WIRE 256 176 224 176
WIRE -16 240 -16 176
WIRE 304 240 304 192
WIRE 608 240 608 160
WIRE 848 240 848 176
WIRE -496 256 -496 192
FLAG -16 240 0
FLAG 304 240 0
FLAG 224 176 pwm
FLAG 608 240 0
FLAG 848 240 0
FLAG -496 256 0
FLAG -496 16 pwm
FLAG 304 0 Vsw
FLAG 720 0 Vout
FLAG -16 0 Vin
SYMBOL voltage -16 80 R0
WINDOW 123 0 0 Left 0
WINDOW 39 0 0 Left 0
SYMATTR InstName V1
SYMATTR Value 28V
SYMBOL nmos 256 96 R0
SYMATTR InstName M1
SYMATTR Value BSZ0905NS
SYMBOL ind 192 -16 R90
WINDOW 0 5 56 VBottom 2
WINDOW 3 32 56 VTop 2
SYMATTR InstName L
SYMATTR Value 47µF
SYMBOL cap 592 96 R0
SYMATTR InstName COUT
SYMATTR Value 22µF
SYMBOL res 832 80 R0
WINDOW 3 -57 109 Left 2
SYMATTR InstName RL
SYMATTR Value 24 tc1=0.002
SYMBOL voltage -496 96 R0
WINDOW 123 0 0 Left 0
WINDOW 39 0 0 Left 0
SYMATTR InstName V2
SYMATTR Value PULSE(0 12 0 0 0 {10u*DUTY} 10u)
SYMBOL schottky 432 16 R270
WINDOW 0 32 32 VTop 2
WINDOW 3 0 32 VBottom 2
SYMATTR InstName D1
SYMATTR Value MBRS340
TEXT -352 16 Left 2 !.tran 0 11m 0 1
TEXT 960 -8 Left 2 !.param DUTY=0.675
TEXT 960 24 Left 2 !.param tol_L  = 0.1
TEXT 960 56 Left 2 !.param tol_C = 0.1
TEXT 960 112 Left 2 !.step temp -40 85 5
TEXT 960 168 Left 2 !.meas tran Vout_avg AVG V(Vout) FROM 5ms TO 10ms
TEXT 960 200 Left 2 !.meas tran Vout_max MAX V(Vout) FROM 5ms TO 10ms
TEXT 960 232 Left 2 !.meas tran Vout_min MIN V(Vout) FROM 5ms TO 10ms
TEXT 960 264 Left 2 !.meas tran Vout_ripple PARAM Vout_max - Vout_min
TEXT 0 -248 Left 2 ;Daniel Hoefer 11/4/24
TEXT 0 -216 Left 2 ;Tolerance Analysis
