Version 4
SHEET 1 880 680
WIRE 240 -64 -64 -64
WIRE 464 -64 304 -64
WIRE -336 32 -336 0
WIRE 384 32 304 32
WIRE 464 32 464 -64
WIRE -336 64 -336 32
WIRE 160 64 48 64
WIRE 464 80 464 32
WIRE 608 80 464 80
WIRE 304 128 304 32
WIRE 352 128 304 128
WIRE 48 144 48 64
WIRE 64 144 48 144
WIRE 160 144 160 64
WIRE 304 144 304 128
WIRE 304 144 240 144
WIRE 464 144 464 80
WIRE 464 144 416 144
WIRE -160 160 -192 160
WIRE -64 160 -64 -64
WIRE -64 160 -96 160
WIRE 160 160 160 144
WIRE 160 160 128 160
WIRE 352 160 336 160
WIRE -64 176 -64 160
WIRE 64 176 -64 176
WIRE -192 192 -192 160
WIRE 336 192 336 160
WIRE -64 240 -64 176
FLAG 336 192 0
FLAG -64 320 0
FLAG -336 32 0
FLAG -336 -80 vcc
FLAG 384 112 vcc
FLAG -336 144 vee
FLAG 384 176 vee
FLAG -192 272 0
FLAG 96 192 vee
FLAG 96 128 vcc
FLAG 608 160 0
SYMBOL res 480 16 R90
WINDOW 0 0 56 VBottom 2
WINDOW 3 32 56 VTop 2
SYMATTR InstName R2
SYMATTR Value 6100
SYMBOL cap 304 -80 R90
WINDOW 0 0 32 VBottom 2
WINDOW 3 32 32 VTop 2
SYMATTR InstName C1
SYMATTR Value 1n
SYMBOL voltage -64 224 R0
SYMATTR InstName V1
SYMATTR Value AC 1 0
SYMBOL voltage -336 -96 R0
WINDOW 123 0 0 Left 0
WINDOW 39 0 0 Left 0
SYMATTR InstName V2
SYMATTR Value 12
SYMBOL voltage -336 48 R0
SYMATTR InstName V3
SYMATTR Value 12
SYMBOL OpAmps\\UniversalOpAmp2 384 144 R0
SYMATTR InstName U1
SYMATTR Value2 Avol=10Meg GBW=100Meg Slew=100Meg
SYMBOL cap -96 144 R90
WINDOW 0 0 32 VBottom 2
WINDOW 3 32 32 VTop 2
SYMATTR InstName C2
SYMATTR Value 6.1n
SYMBOL res -208 176 R0
SYMATTR InstName R3
SYMATTR Value 1k
SYMBOL res 256 128 R90
WINDOW 0 0 56 VBottom 2
WINDOW 3 32 56 VTop 2
SYMATTR InstName R1
SYMATTR Value 1k
SYMBOL OpAmps\\UniversalOpAmp2 96 160 R0
SYMATTR InstName U2
SYMATTR Value2 Avol=10Meg GBW=100Meg Slew=100Meg
SYMBOL res 592 64 R0
SYMATTR InstName R4
SYMATTR Value 1k
TEXT 280 256 Left 2 !.ac dec 100 1 1K
