Version 4
SHEET 1 880 680
WIRE 528 80 480 80
WIRE 640 80 592 80
WIRE 800 80 640 80
WIRE 848 80 800 80
WIRE 0 96 -48 96
WIRE 112 96 64 96
WIRE 304 96 112 96
WIRE 320 96 304 96
WIRE 640 144 640 80
WIRE 704 144 640 144
WIRE 112 160 112 96
WIRE 176 160 112 160
WIRE 848 160 848 80
WIRE 848 160 768 160
WIRE 320 176 320 96
WIRE 320 176 240 176
WIRE 368 176 320 176
WIRE 480 176 480 80
WIRE 480 176 448 176
WIRE 512 176 480 176
WIRE 640 176 592 176
WIRE 704 176 640 176
WIRE -208 192 -256 192
WIRE -160 192 -208 192
WIRE -48 192 -48 96
WIRE -48 192 -80 192
WIRE -16 192 -48 192
WIRE 112 192 64 192
WIRE 176 192 112 192
WIRE -256 208 -256 192
WIRE 640 256 640 176
WIRE 112 272 112 192
FLAG -480 224 0
FLAG -480 368 0
FLAG -480 144 v+
FLAG -480 288 v-
FLAG 112 336 0
FLAG 208 144 v+
FLAG 208 208 v-
FLAG 640 320 0
FLAG 736 128 v+
FLAG 736 192 v-
FLAG 800 80 out
FLAG -208 192 in
FLAG -256 288 0
FLAG 304 96 mid
SYMBOL OpAmps\\LT1001 208 112 R0
SYMATTR InstName U1
SYMBOL voltage -480 128 R0
SYMATTR InstName V1
SYMATTR Value 10
SYMBOL voltage -480 272 R0
SYMATTR InstName V2
SYMATTR Value -10
SYMBOL res 80 176 R90
WINDOW 0 0 56 VBottom 2
WINDOW 3 32 56 VTop 2
SYMATTR InstName R1
SYMATTR Value 1200
SYMBOL res -64 176 R90
WINDOW 0 0 56 VBottom 2
WINDOW 3 32 56 VTop 2
SYMATTR InstName R2
SYMATTR Value 1200
SYMBOL cap 96 272 R0
SYMATTR InstName C1
SYMATTR Value 10.44n
SYMBOL cap 64 80 R90
WINDOW 0 0 32 VBottom 2
WINDOW 3 32 32 VTop 2
SYMATTR InstName C2
SYMATTR Value 16n
SYMBOL OpAmps\\LT1001 736 96 R0
SYMATTR InstName U2
SYMBOL res 608 160 R90
WINDOW 0 0 56 VBottom 2
WINDOW 3 32 56 VTop 2
SYMATTR InstName R3
SYMATTR Value 2897
SYMBOL res 464 160 R90
WINDOW 0 0 56 VBottom 2
WINDOW 3 32 56 VTop 2
SYMATTR InstName R4
SYMATTR Value 2897
SYMBOL cap 624 256 R0
SYMATTR InstName C3
SYMATTR Value 839p
SYMBOL cap 592 64 R90
WINDOW 0 0 32 VBottom 2
WINDOW 3 32 32 VTop 2
SYMATTR InstName C4
SYMATTR Value 16n
SYMBOL voltage -256 192 R0
SYMATTR InstName V3
SYMATTR Value AC 1
TEXT -248 416 Left 2 !.ac dec 50 10 1E6
