Version 4
SHEET 1 1448 680
WIRE 400 16 368 16
WIRE 512 16 480 16
WIRE 640 16 512 16
WIRE 1008 16 992 16
WIRE 1184 16 1088 16
WIRE 512 96 512 16
WIRE 544 96 512 96
WIRE 640 112 640 16
WIRE 640 112 608 112
WIRE 720 112 640 112
WIRE 816 112 784 112
WIRE 992 112 992 16
WIRE 992 112 896 112
WIRE 1088 112 992 112
WIRE 288 128 224 128
WIRE 368 128 368 16
WIRE 368 128 352 128
WIRE 384 128 368 128
WIRE 480 128 448 128
WIRE 544 128 480 128
WIRE 1184 128 1184 16
WIRE 1184 128 1152 128
WIRE 1264 128 1184 128
WIRE 1088 144 1056 144
WIRE -16 160 -16 128
WIRE 80 160 -16 160
WIRE 480 160 480 128
WIRE 80 176 80 160
WIRE -16 192 -16 160
WIRE 1056 192 1056 144
WIRE 224 208 224 128
WIRE 480 272 480 240
FLAG 80 176 0
FLAG -16 48 vcc
FLAG -16 272 vee
FLAG 576 80 vcc
FLAG 1120 96 vcc
FLAG 576 144 vee
FLAG 1120 160 vee
FLAG 1056 192 0
FLAG 480 272 0
FLAG 224 128 in
FLAG 1264 128 cascade
FLAG 224 288 0
SYMBOL voltage -16 32 R0
SYMATTR InstName V1
SYMATTR Value 12
SYMBOL voltage -16 176 R0
SYMATTR InstName V2
SYMATTR Value 12
SYMBOL OpAmps\\LT1001 576 48 R0
SYMATTR InstName U1
SYMBOL OpAmps\\LT1001 1120 64 R0
SYMATTR InstName U2
SYMBOL cap 784 96 R90
WINDOW 0 0 32 VBottom 2
WINDOW 3 32 32 VTop 2
SYMATTR InstName C1
SYMATTR Value 100n
SYMBOL res 912 96 R90
WINDOW 0 0 56 VBottom 2
WINDOW 3 32 56 VTop 2
SYMATTR InstName R1
SYMATTR Value 10k
SYMBOL res 1104 0 R90
WINDOW 0 0 56 VBottom 2
WINDOW 3 32 56 VTop 2
SYMATTR InstName R2
SYMATTR Value 100k
SYMBOL res 464 144 R0
SYMATTR InstName R3
SYMATTR Value 15005
SYMBOL cap 448 112 R90
WINDOW 0 0 32 VBottom 2
WINDOW 3 32 32 VTop 2
SYMATTR InstName C2
SYMATTR Value 100n
SYMBOL cap 352 112 R90
WINDOW 0 0 32 VBottom 2
WINDOW 3 32 32 VTop 2
SYMATTR InstName C3
SYMATTR Value 100n
SYMBOL res 496 0 R90
WINDOW 0 0 56 VBottom 2
WINDOW 3 32 56 VTop 2
SYMATTR InstName R4
SYMATTR Value 7502
SYMBOL voltage 224 192 R0
SYMATTR InstName V3
SYMATTR Value AC 1 0
TEXT 536 344 Left 2 !.ac dec 100 1 10K
