Version 4
SHEET 1 880 680
TEXT 248 -136 Left 2 !.include TPS54538_TRANS.lib
