Version 4
SHEET 1 880 680
WIRE 112 80 48 80
WIRE 192 80 112 80
WIRE 336 80 192 80
WIRE 480 80 416 80
WIRE 688 80 480 80
WIRE 480 112 480 80
WIRE 688 144 688 80
WIRE 48 224 48 160
WIRE 96 224 48 224
WIRE 192 224 192 160
WIRE 192 224 176 224
WIRE 480 224 480 192
WIRE 480 224 192 224
WIRE 48 336 48 224
WIRE 688 336 688 224
WIRE 688 336 48 336
FLAG 112 80 0
SYMBOL res 32 64 R0
SYMATTR InstName R1
SYMBOL res 176 64 R0
SYMATTR InstName R2
SYMBOL res 192 208 R90
WINDOW 0 0 56 VBottom 2
WINDOW 3 32 56 VTop 2
SYMATTR InstName R3
SYMBOL res 320 96 R270
WINDOW 0 32 56 VTop 2
WINDOW 3 0 56 VBottom 2
SYMATTR InstName R4
SYMBOL res 464 96 R0
SYMATTR InstName R5
SYMBOL voltage 688 240 R180
WINDOW 0 24 96 Left 2
WINDOW 3 24 16 Left 2
SYMATTR InstName V1
