Version 4
SHEET 1 880 680
WIRE 256 -32 240 -32
WIRE 384 -32 336 -32
WIRE 384 32 384 -32
WIRE 464 32 384 32
WIRE 48 96 0 96
WIRE 80 96 48 96
WIRE 240 96 240 -32
WIRE 240 96 224 96
WIRE 256 96 240 96
WIRE 384 112 384 32
WIRE 384 112 320 112
WIRE 0 128 0 96
WIRE 256 128 224 128
WIRE 224 160 224 128
FLAG 0 208 0
FLAG 224 160 0
FLAG -112 112 0
FLAG -224 112 0
FLAG 288 80 +V
FLAG 288 144 -V
FLAG 464 32 Vout
FLAG -224 32 +V
FLAG -112 32 -V
FLAG 48 96 Vin
SYMBOL voltage 0 112 R0
WINDOW 123 0 0 Left 0
WINDOW 39 0 0 Left 0
SYMATTR InstName V1
SYMATTR Value PULSE(0 1 0 1m 1m 0 2m)
SYMBOL res 176 80 R90
WINDOW 0 0 56 VBottom 2
WINDOW 3 32 56 VTop 2
SYMATTR InstName R1
SYMATTR Value 1k
SYMBOL cap 224 80 R90
WINDOW 0 0 32 VBottom 2
WINDOW 3 32 32 VTop 2
SYMATTR InstName C1
SYMATTR Value 10n
SYMBOL OpAmps\\LT1457 288 112 R0
SYMATTR InstName U1
SYMBOL voltage -224 16 R0
WINDOW 123 0 0 Left 0
WINDOW 39 0 0 Left 0
SYMATTR InstName V2
SYMATTR Value 10
SYMBOL voltage -112 16 R0
WINDOW 123 0 0 Left 0
WINDOW 39 0 0 Left 0
SYMATTR InstName V3
SYMATTR Value -10
SYMBOL res 352 -48 R90
WINDOW 0 0 56 VBottom 2
WINDOW 3 32 56 VTop 2
SYMATTR InstName R2
SYMATTR Value 100k
TEXT 0 304 Left 2 !.tran 6m
