Version 4
SHEET 1 880 680
WIRE 64 32 -48 32
WIRE -464 96 -640 96
WIRE 64 96 -400 96
WIRE -640 144 -640 96
WIRE -640 352 -640 224
WIRE -48 352 -48 32
FLAG -48 352 0
FLAG -640 352 0
SYMBOL Misc\\NE555 176 128 R0
SYMATTR InstName U1
SYMBOL cap -400 80 R90
WINDOW 0 0 32 VBottom 2
WINDOW 3 32 32 VTop 2
SYMATTR InstName C1
SYMBOL voltage -640 128 R0
SYMATTR InstName V1
